12

C	6.0	0.0000000	1.3855350	0.0000000
C	6.0	1.1999090	0.6927680	0.0000000
C	6.0	1.1999090	-0.6927680	0.0000000
C	6.0	0.0000000	-1.3855350	0.0000000
C	6.0	-1.1999090	-0.6927680	0.0000000
C	6.0	-1.1999090	0.6927680	0.0000000
H	1.0	0.0000000	2.4610840	0.0000000
H	1.0	2.1313610	1.2305420	0.0000000
H	1.0	2.1313610	-1.2305420	0.0000000
H	1.0	0.0000000	-2.4610840	0.0000000
H	1.0	-2.1313610	-1.2305420	0.0000000
H	1.0	-2.1313610	1.2305420	0.0000000
